<routes>
            <vType id="cars" accel="3" decel="5" sigma="1" length="5" minGap="2" maxSpeed="13"             guiShape="passenger"/>

            <route id="WE" edges="2_1 1_4" />
            <route id="WN" edges="2_1 1_5" />
            <route id="WS" edges="2_1 1_3" />
            <route id="SN" edges="3_1 1_5" />
            <route id="SW" edges="3_1 1_2" />
            <route id="SE" edges="3_1 1_4" />
            <route id="EW" edges="4_1 1_2" />
            <route id="ES" edges="4_1 1_3" />
            <route id="EN" edges="4_1 1_5" />
            <route id="NS" edges="5_1 1_3" />
            <route id="NE" edges="5_1 1_4" />
            <route id="NW" edges="5_1 1_2" />

            <route id="NS_ped" edges="5_1 :1_w0 :1_c5 :1_w3 1_3" />
            <route id="SN_ped" edges="3_1 :1_w2 :1_c2 :1_w1 1_5" />
            <route id="WE_ped" edges="2_1 :1_w3 :1_c4 :1_w2 1_4" />
            <route id="EW_ped" edges="4_1 :1_w1 :1_c0 :1_w0 1_2" />
            <route id="WN_ped_wn" edges="2_1 :1_w3 :1_c5 :1_w0 :1_c0 :1_w1 1_5" />
            <route id="WN_ped_se" edges="2_1 :1_w3 :1_c4 :1_w2 :1_c2 :1_w1 1_5" />
            <route id="SW_ped_sw" edges="3_1 :1_w2 :1_c4 :1_w3 :1_c5 :1_w0 1_2" />
            <route id="SW_ped_en" edges="3_1 :1_w2 :1_c2 :1_w1 :1_c0 :1_w0 1_2" />
            <route id="ES_ped_es" edges="4_1 :1_w1 :1_c2 :1_w2 :1_c4 :1_w3 1_3" />
            <route id="ES_ped_nw" edges="4_1 :1_w1 :1_c0 :1_w0 :1_c5 :1_w3 1_3" />
            <route id="NE_ped_ne" edges="5_1 :1_w0 :1_c0 :1_w1 :1_c2 :1_w2 1_4" />
            <route id="NE_ped_ws" edges="5_1 :1_w0 :1_c5 :1_w3 :1_c4 :1_w2 1_4" />
            <route id="WN_ped_diag" edges="2_1 :1_w3 :1_c1 :1_w1 1_5" />
            <route id="SW_ped_diag" edges="3_1 :1_w2 :1_c3 :1_w0 1_2" />
            <route id="ES_ped_diag" edges="4_1 :1_w1 :1_c1 :1_w3 1_3" />
            <route id="NE_ped_diag" edges="5_1 :1_w0 :1_c3 :1_w2 1_4" />

            
            <personFlow id="person_WE_s" begin="0" end="450" period="exp(0.06)" departPos="100">
                <walk route="WE_ped"/>
             </personFlow>
            <personFlow id="person_EW_n" begin="0" end="450" period="exp(0.02)" departPos="100">
                <walk route="EW_ped"/>
            </personFlow>
            <personFlow id="person_NS_w" begin="0" end="450" period="exp(0.12)" departPos="100">
                <walk route="NS_ped"/>
            </personFlow>
            <personFlow id="person_SN_e" begin="0" end="450" period="exp(0.04)" departPos="100">
                <walk route="SN_ped"/>
            </personFlow>   
            <personFlow id="person_WN_diag" begin="0" end="450" period="exp(0.06)" departPos="100">
                <walk from="2_1" to="1_5"/>
            </personFlow>
            <personFlow id="person_SW_diag" begin="0" end="450" period="exp(0.06)" departPos="100">
                <walk from="3_1" to="1_2"/>
            </personFlow>   
            <personFlow id="person_ES_diag" begin="0" end="450" period="exp(0.06)" departPos="100">
                <walk from="4_1" to="1_3"/>
            </personFlow>       
            <personFlow id="person_NE_diag" begin="0" end="450" period="exp(0.06)" departPos="100">
                <walk from="5_1" to="1_4"/>
            </personFlow>      
   
            
    <vehicle id="SN_0" type="cars" route="SN" depart="0" departLane="2" color="0,1,0"/>
    <vehicle id="WE_0" type="cars" route="WE" depart="1" departLane="2" color="0,1,0"/>
    <vehicle id="NS_1" type="cars" route="NS" depart="1" departLane="2" color="0,1,0"/>
    <vehicle id="SN_2" type="cars" route="SN" depart="5" departLane="2" color="0,1,0"/>
    <vehicle id="WS_3" type="cars" route="WS" depart="7" departLane="1" color="0,1,0"/>
    <vehicle id="WE_1" type="cars" route="WE" depart="10" departLane="2" color="0,1,0"/>
    <vehicle id="WE_2" type="cars" route="WE" depart="12" departLane="2" color="0,1,0"/>
    <vehicle id="ES_4" type="cars" route="ES" depart="14" departLane="3" color="0,1,0"/>
    <vehicle id="EW_0" type="cars" route="EW" depart="19" departLane="2" color="0,1,0"/>
    <vehicle id="EW_1" type="cars" route="EW" depart="21" departLane="2" color="0,1,0"/>
    <vehicle id="NS_5" type="cars" route="NS" depart="22" departLane="2" color="0,1,0"/>
    <vehicle id="ES_6" type="cars" route="ES" depart="31" departLane="3" color="0,1,0"/>
    <vehicle id="NW_7" type="cars" route="NW" depart="37" departLane="1" color="0,1,0"/>
    <vehicle id="SW_8" type="cars" route="SW" depart="40" departLane="3" color="0,1,0"/>
    <vehicle id="NW_9" type="cars" route="NW" depart="41" departLane="1" color="0,1,0"/>
    <vehicle id="WE_3" type="cars" route="WE" depart="43" departLane="2" color="0,1,0"/>
    <vehicle id="EW_2" type="cars" route="EW" depart="46" departLane="2" color="0,1,0"/>
    <vehicle id="SN_10" type="cars" route="SN" depart="48" departLane="2" color="0,1,0"/>
    <vehicle id="WE_4" type="cars" route="WE" depart="67" departLane="2" color="0,1,0"/>
    <vehicle id="EW_3" type="cars" route="EW" depart="68" departLane="2" color="0,1,0"/>
    <vehicle id="SN_11" type="cars" route="SN" depart="70" departLane="2" color="0,1,0"/>
    <vehicle id="NS_12" type="cars" route="NS" depart="80" departLane="2" color="0,1,0"/>
    <vehicle id="WN_13" type="cars" route="WN" depart="85" departLane="3" color="0,1,0"/>
    <vehicle id="WE_5" type="cars" route="WE" depart="86" departLane="2" color="0,1,0"/>
    <vehicle id="WE_6" type="cars" route="WE" depart="87" departLane="2" color="0,1,0"/>
    <vehicle id="SN_14" type="cars" route="SN" depart="90" departLane="2" color="0,1,0"/>
    <vehicle id="NS_15" type="cars" route="NS" depart="92" departLane="2" color="0,1,0"/>
    <vehicle id="SN_16" type="cars" route="SN" depart="93" departLane="2" color="0,1,0"/>
    <vehicle id="SW_17" type="cars" route="SW" depart="93" departLane="3" color="0,1,0"/>
    <vehicle id="NS_18" type="cars" route="NS" depart="99" departLane="2" color="0,1,0"/>
    <vehicle id="SE_19" type="cars" route="SE" depart="100" departLane="1" color="0,1,0"/>
    <vehicle id="SN_20" type="cars" route="SN" depart="109" departLane="2" color="0,1,0"/>
    <vehicle id="EN_21" type="cars" route="EN" depart="111" departLane="1" color="0,1,0"/>
    <vehicle id="ES_22" type="cars" route="ES" depart="119" departLane="3" color="0,1,0"/>
    <vehicle id="EW_4" type="cars" route="EW" depart="123" departLane="2" color="0,1,0"/>
    <vehicle id="WE_7" type="cars" route="WE" depart="125" departLane="2" color="0,1,0"/>
    <vehicle id="EW_5" type="cars" route="EW" depart="125" departLane="2" color="0,1,0"/>
    <vehicle id="WS_23" type="cars" route="WS" depart="125" departLane="1" color="0,1,0"/>
    <vehicle id="NS_24" type="cars" route="NS" depart="125" departLane="2" color="0,1,0"/>
    <vehicle id="SN_25" type="cars" route="SN" depart="126" departLane="2" color="0,1,0"/>
    <vehicle id="NS_26" type="cars" route="NS" depart="130" departLane="2" color="0,1,0"/>
    <vehicle id="SN_27" type="cars" route="SN" depart="130" departLane="2" color="0,1,0"/>
    <vehicle id="WE_8" type="cars" route="WE" depart="134" departLane="2" color="0,1,0"/>
    <vehicle id="SW_28" type="cars" route="SW" depart="136" departLane="3" color="0,1,0"/>
    <vehicle id="EW_6" type="cars" route="EW" depart="137" departLane="2" color="0,1,0"/>
    <vehicle id="EN_29" type="cars" route="EN" depart="137" departLane="1" color="0,1,0"/>
    <vehicle id="NS_30" type="cars" route="NS" depart="138" departLane="2" color="0,1,0"/>
    <vehicle id="NS_31" type="cars" route="NS" depart="139" departLane="2" color="0,1,0"/>
    <vehicle id="NS_32" type="cars" route="NS" depart="147" departLane="2" color="0,1,0"/>
    <vehicle id="NW_33" type="cars" route="NW" depart="147" departLane="1" color="0,1,0"/>
    <vehicle id="NS_34" type="cars" route="NS" depart="152" departLane="2" color="0,1,0"/>
    <vehicle id="SN_35" type="cars" route="SN" depart="156" departLane="2" color="0,1,0"/>
    <vehicle id="WN_36" type="cars" route="WN" depart="158" departLane="3" color="0,1,0"/>
    <vehicle id="ES_37" type="cars" route="ES" depart="160" departLane="3" color="0,1,0"/>
    <vehicle id="NS_38" type="cars" route="NS" depart="163" departLane="2" color="0,1,0"/>
    <vehicle id="WE_9" type="cars" route="WE" depart="175" departLane="2" color="0,1,0"/>
    <vehicle id="EW_7" type="cars" route="EW" depart="175" departLane="2" color="0,1,0"/>
    <vehicle id="WE_10" type="cars" route="WE" depart="177" departLane="2" color="0,1,0"/>
    <vehicle id="NE_39" type="cars" route="NE" depart="177" departLane="3" color="0,1,0"/>
    <vehicle id="WE_11" type="cars" route="WE" depart="187" departLane="2" color="0,1,0"/>
    <vehicle id="NS_40" type="cars" route="NS" depart="188" departLane="2" color="0,1,0"/>
    <vehicle id="NE_41" type="cars" route="NE" depart="192" departLane="3" color="0,1,0"/>
    <vehicle id="SN_42" type="cars" route="SN" depart="196" departLane="2" color="0,1,0"/>
    <vehicle id="NS_43" type="cars" route="NS" depart="197" departLane="2" color="0,1,0"/>
    <vehicle id="EW_8" type="cars" route="EW" depart="198" departLane="2" color="0,1,0"/>
    <vehicle id="SN_44" type="cars" route="SN" depart="198" departLane="2" color="0,1,0"/>
    <vehicle id="NS_45" type="cars" route="NS" depart="200" departLane="2" color="0,1,0"/>
    <vehicle id="SN_46" type="cars" route="SN" depart="202" departLane="2" color="0,1,0"/>
    <vehicle id="EW_9" type="cars" route="EW" depart="203" departLane="2" color="0,1,0"/>
    <vehicle id="WE_12" type="cars" route="WE" depart="204" departLane="2" color="0,1,0"/>
    <vehicle id="SW_47" type="cars" route="SW" depart="205" departLane="3" color="0,1,0"/>
    <vehicle id="EN_48" type="cars" route="EN" depart="206" departLane="1" color="0,1,0"/>
    <vehicle id="NS_49" type="cars" route="NS" depart="207" departLane="2" color="0,1,0"/>
    <vehicle id="EW_10" type="cars" route="EW" depart="209" departLane="2" color="0,1,0"/>
    <vehicle id="EW_11" type="cars" route="EW" depart="211" departLane="2" color="0,1,0"/>
    <vehicle id="NS_50" type="cars" route="NS" depart="216" departLane="2" color="0,1,0"/>
    <vehicle id="WE_13" type="cars" route="WE" depart="218" departLane="2" color="0,1,0"/>
    <vehicle id="WE_14" type="cars" route="WE" depart="222" departLane="2" color="0,1,0"/>
    <vehicle id="SN_51" type="cars" route="SN" depart="222" departLane="2" color="0,1,0"/>
    <vehicle id="NS_52" type="cars" route="NS" depart="226" departLane="2" color="0,1,0"/>
    <vehicle id="SE_53" type="cars" route="SE" depart="227" departLane="1" color="0,1,0"/>
    <vehicle id="EW_12" type="cars" route="EW" depart="235" departLane="2" color="0,1,0"/>
    <vehicle id="SN_54" type="cars" route="SN" depart="235" departLane="2" color="0,1,0"/>
    <vehicle id="EW_13" type="cars" route="EW" depart="236" departLane="2" color="0,1,0"/>
    <vehicle id="WE_15" type="cars" route="WE" depart="238" departLane="2" color="0,1,0"/>
    <vehicle id="SN_55" type="cars" route="SN" depart="244" departLane="2" color="0,1,0"/>
    <vehicle id="SN_56" type="cars" route="SN" depart="246" departLane="2" color="0,1,0"/>
    <vehicle id="NS_57" type="cars" route="NS" depart="247" departLane="2" color="0,1,0"/>
    <vehicle id="SN_58" type="cars" route="SN" depart="251" departLane="2" color="0,1,0"/>
    <vehicle id="EW_14" type="cars" route="EW" depart="255" departLane="2" color="0,1,0"/>
    <vehicle id="EW_15" type="cars" route="EW" depart="256" departLane="2" color="0,1,0"/>
    <vehicle id="NS_59" type="cars" route="NS" depart="256" departLane="2" color="0,1,0"/>
    <vehicle id="NE_60" type="cars" route="NE" depart="256" departLane="3" color="0,1,0"/>
    <vehicle id="NW_61" type="cars" route="NW" depart="257" departLane="1" color="0,1,0"/>
    <vehicle id="WE_16" type="cars" route="WE" depart="258" departLane="2" color="0,1,0"/>
    <vehicle id="WE_17" type="cars" route="WE" depart="260" departLane="2" color="0,1,0"/>
    <vehicle id="SN_62" type="cars" route="SN" depart="262" departLane="2" color="0,1,0"/>
    <vehicle id="NS_63" type="cars" route="NS" depart="264" departLane="2" color="0,1,0"/>
    <vehicle id="ES_64" type="cars" route="ES" depart="266" departLane="3" color="0,1,0"/>
    <vehicle id="NS_65" type="cars" route="NS" depart="266" departLane="2" color="0,1,0"/>
    <vehicle id="EW_16" type="cars" route="EW" depart="267" departLane="2" color="0,1,0"/>
    <vehicle id="SN_66" type="cars" route="SN" depart="271" departLane="2" color="0,1,0"/>
    <vehicle id="NW_67" type="cars" route="NW" depart="272" departLane="1" color="0,1,0"/>
    <vehicle id="WN_68" type="cars" route="WN" depart="274" departLane="3" color="0,1,0"/>
    <vehicle id="SN_69" type="cars" route="SN" depart="275" departLane="2" color="0,1,0"/>
    <vehicle id="EW_17" type="cars" route="EW" depart="279" departLane="2" color="0,1,0"/>
    <vehicle id="SN_70" type="cars" route="SN" depart="280" departLane="2" color="0,1,0"/>
    <vehicle id="ES_71" type="cars" route="ES" depart="281" departLane="3" color="0,1,0"/>
    <vehicle id="ES_72" type="cars" route="ES" depart="282" departLane="3" color="0,1,0"/>
    <vehicle id="NS_73" type="cars" route="NS" depart="284" departLane="2" color="0,1,0"/>
    <vehicle id="NW_74" type="cars" route="NW" depart="285" departLane="1" color="0,1,0"/>
    <vehicle id="WE_18" type="cars" route="WE" depart="286" departLane="2" color="0,1,0"/>
    <vehicle id="EW_18" type="cars" route="EW" depart="286" departLane="2" color="0,1,0"/>
    <vehicle id="SN_75" type="cars" route="SN" depart="291" departLane="2" color="0,1,0"/>
    <vehicle id="WE_19" type="cars" route="WE" depart="295" departLane="2" color="0,1,0"/>
    <vehicle id="NS_76" type="cars" route="NS" depart="297" departLane="2" color="0,1,0"/>
    <vehicle id="SN_77" type="cars" route="SN" depart="298" departLane="2" color="0,1,0"/>
    <vehicle id="NS_78" type="cars" route="NS" depart="302" departLane="2" color="0,1,0"/>
    <vehicle id="SN_79" type="cars" route="SN" depart="305" departLane="2" color="0,1,0"/>
    <vehicle id="WE_20" type="cars" route="WE" depart="307" departLane="2" color="0,1,0"/>
    <vehicle id="EW_19" type="cars" route="EW" depart="308" departLane="2" color="0,1,0"/>
    <vehicle id="NS_80" type="cars" route="NS" depart="308" departLane="2" color="0,1,0"/>
    <vehicle id="WN_81" type="cars" route="WN" depart="309" departLane="3" color="0,1,0"/>
    <vehicle id="SN_82" type="cars" route="SN" depart="309" departLane="2" color="0,1,0"/>
    <vehicle id="EW_20" type="cars" route="EW" depart="311" departLane="2" color="0,1,0"/>
    <vehicle id="WS_83" type="cars" route="WS" depart="312" departLane="1" color="0,1,0"/>
    <vehicle id="WE_21" type="cars" route="WE" depart="316" departLane="2" color="0,1,0"/>
    <vehicle id="EW_21" type="cars" route="EW" depart="316" departLane="2" color="0,1,0"/>
    <vehicle id="NS_84" type="cars" route="NS" depart="317" departLane="2" color="0,1,0"/>
    <vehicle id="EW_22" type="cars" route="EW" depart="321" departLane="2" color="0,1,0"/>
    <vehicle id="NE_85" type="cars" route="NE" depart="322" departLane="3" color="0,1,0"/>
    <vehicle id="EW_23" type="cars" route="EW" depart="324" departLane="2" color="0,1,0"/>
    <vehicle id="SN_86" type="cars" route="SN" depart="329" departLane="2" color="0,1,0"/>
    <vehicle id="WE_22" type="cars" route="WE" depart="330" departLane="2" color="0,1,0"/>
    <vehicle id="EW_24" type="cars" route="EW" depart="332" departLane="2" color="0,1,0"/>
    <vehicle id="SN_87" type="cars" route="SN" depart="332" departLane="2" color="0,1,0"/>
    <vehicle id="NS_88" type="cars" route="NS" depart="333" departLane="2" color="0,1,0"/>
    <vehicle id="WE_23" type="cars" route="WE" depart="342" departLane="2" color="0,1,0"/>
    <vehicle id="EW_25" type="cars" route="EW" depart="342" departLane="2" color="0,1,0"/>
    <vehicle id="EW_26" type="cars" route="EW" depart="344" departLane="2" color="0,1,0"/>
    <vehicle id="ES_89" type="cars" route="ES" depart="344" departLane="3" color="0,1,0"/>
    <vehicle id="SN_90" type="cars" route="SN" depart="346" departLane="2" color="0,1,0"/>
    <vehicle id="EW_27" type="cars" route="EW" depart="347" departLane="2" color="0,1,0"/>
    <vehicle id="NS_91" type="cars" route="NS" depart="350" departLane="2" color="0,1,0"/>
    <vehicle id="SN_92" type="cars" route="SN" depart="350" departLane="2" color="0,1,0"/>
    <vehicle id="EW_28" type="cars" route="EW" depart="351" departLane="2" color="0,1,0"/>
    <vehicle id="WS_93" type="cars" route="WS" depart="353" departLane="1" color="0,1,0"/>
    <vehicle id="SW_94" type="cars" route="SW" depart="357" departLane="3" color="0,1,0"/>
    <vehicle id="EW_29" type="cars" route="EW" depart="358" departLane="2" color="0,1,0"/>
    <vehicle id="WS_95" type="cars" route="WS" depart="359" departLane="1" color="0,1,0"/>
    <vehicle id="WE_24" type="cars" route="WE" depart="360" departLane="2" color="0,1,0"/>
    <vehicle id="WS_96" type="cars" route="WS" depart="360" departLane="1" color="0,1,0"/>
    <vehicle id="WE_25" type="cars" route="WE" depart="363" departLane="2" color="0,1,0"/>
    <vehicle id="WE_26" type="cars" route="WE" depart="365" departLane="2" color="0,1,0"/>
    <vehicle id="NS_97" type="cars" route="NS" depart="366" departLane="2" color="0,1,0"/>
    <vehicle id="WE_27" type="cars" route="WE" depart="371" departLane="2" color="0,1,0"/>
    <vehicle id="EW_30" type="cars" route="EW" depart="373" departLane="2" color="0,1,0"/>
    <vehicle id="SN_98" type="cars" route="SN" depart="375" departLane="2" color="0,1,0"/>
    <vehicle id="EW_31" type="cars" route="EW" depart="376" departLane="2" color="0,1,0"/>
    <vehicle id="NS_99" type="cars" route="NS" depart="377" departLane="2" color="0,1,0"/>
    <vehicle id="SN_100" type="cars" route="SN" depart="377" departLane="2" color="0,1,0"/>
    <vehicle id="EW_32" type="cars" route="EW" depart="379" departLane="2" color="0,1,0"/>
    <vehicle id="EW_33" type="cars" route="EW" depart="381" departLane="2" color="0,1,0"/>
    <vehicle id="NS_101" type="cars" route="NS" depart="381" departLane="2" color="0,1,0"/>
    <vehicle id="SN_102" type="cars" route="SN" depart="382" departLane="2" color="0,1,0"/>
    <vehicle id="WE_28" type="cars" route="WE" depart="383" departLane="2" color="0,1,0"/>
    <vehicle id="WE_29" type="cars" route="WE" depart="385" departLane="2" color="0,1,0"/>
    <vehicle id="WN_103" type="cars" route="WN" depart="386" departLane="3" color="0,1,0"/>
    <vehicle id="WE_30" type="cars" route="WE" depart="388" departLane="2" color="0,1,0"/>
    <vehicle id="WS_104" type="cars" route="WS" depart="389" departLane="1" color="0,1,0"/>
    <vehicle id="NS_105" type="cars" route="NS" depart="389" departLane="2" color="0,1,0"/>
    <vehicle id="SN_106" type="cars" route="SN" depart="390" departLane="2" color="0,1,0"/>
    <vehicle id="SN_107" type="cars" route="SN" depart="396" departLane="2" color="0,1,0"/>
    <vehicle id="EW_34" type="cars" route="EW" depart="397" departLane="2" color="0,1,0"/>
    <vehicle id="NS_108" type="cars" route="NS" depart="402" departLane="2" color="0,1,0"/>
    <vehicle id="WN_109" type="cars" route="WN" depart="403" departLane="3" color="0,1,0"/>
    <vehicle id="NS_110" type="cars" route="NS" depart="404" departLane="2" color="0,1,0"/>
    <vehicle id="EW_35" type="cars" route="EW" depart="408" departLane="2" color="0,1,0"/>
    <vehicle id="NS_111" type="cars" route="NS" depart="409" departLane="2" color="0,1,0"/>
    <vehicle id="SN_112" type="cars" route="SN" depart="410" departLane="2" color="0,1,0"/>
    <vehicle id="WN_113" type="cars" route="WN" depart="411" departLane="3" color="0,1,0"/>
    <vehicle id="EW_36" type="cars" route="EW" depart="412" departLane="2" color="0,1,0"/>
    <vehicle id="SN_114" type="cars" route="SN" depart="414" departLane="2" color="0,1,0"/>
    <vehicle id="WE_31" type="cars" route="WE" depart="418" departLane="2" color="0,1,0"/>
    <vehicle id="ES_115" type="cars" route="ES" depart="418" departLane="3" color="0,1,0"/>
    <vehicle id="EW_37" type="cars" route="EW" depart="419" departLane="2" color="0,1,0"/>
    <vehicle id="EW_38" type="cars" route="EW" depart="423" departLane="2" color="0,1,0"/>
    <vehicle id="NS_116" type="cars" route="NS" depart="424" departLane="2" color="0,1,0"/>
    <vehicle id="EW_39" type="cars" route="EW" depart="427" departLane="2" color="0,1,0"/>
    <vehicle id="WS_117" type="cars" route="WS" depart="428" departLane="1" color="0,1,0"/>
    <vehicle id="NS_118" type="cars" route="NS" depart="428" departLane="2" color="0,1,0"/>
    <vehicle id="WE_32" type="cars" route="WE" depart="429" departLane="2" color="0,1,0"/>
    <vehicle id="EW_40" type="cars" route="EW" depart="429" departLane="2" color="0,1,0"/>
    <vehicle id="EW_41" type="cars" route="EW" depart="430" departLane="2" color="0,1,0"/>
    <vehicle id="WE_33" type="cars" route="WE" depart="432" departLane="2" color="0,1,0"/>
    <vehicle id="EW_42" type="cars" route="EW" depart="433" departLane="2" color="0,1,0"/>
    <vehicle id="WE_34" type="cars" route="WE" depart="434" departLane="2" color="0,1,0"/>
    <vehicle id="SE_119" type="cars" route="SE" depart="434" departLane="1" color="0,1,0"/>
    <vehicle id="WE_35" type="cars" route="WE" depart="435" departLane="2" color="0,1,0"/>
    <vehicle id="SN_120" type="cars" route="SN" depart="437" departLane="2" color="0,1,0"/>
    <vehicle id="SW_121" type="cars" route="SW" depart="440" departLane="3" color="0,1,0"/>
    <vehicle id="WE_36" type="cars" route="WE" depart="441" departLane="2" color="0,1,0"/>
    <vehicle id="EW_43" type="cars" route="EW" depart="441" departLane="2" color="0,1,0"/>
    <vehicle id="WN_122" type="cars" route="WN" depart="446" departLane="3" color="0,1,0"/>
    <vehicle id="WE_37" type="cars" route="WE" depart="448" departLane="2" color="0,1,0"/>
    <vehicle id="EW_44" type="cars" route="EW" depart="449" departLane="2" color="0,1,0"/>
</routes>
