<?xml version="1.0" encoding="UTF-8"?>

<!-- generated on 2025-02-27 14:28:41 by Eclipse SUMO GUI Version 1.16.0
<configuration xmlns:xsi="http://www.w3.org/2001/XMLSchema-instance" xsi:noNamespaceSchemaLocation="http://sumo.dlr.de/xsd/sumoConfiguration.xsd">

    <input>
        <net-file value="/Users/shakibanaderian/Desktop/Multimodal SVCC project/CET593/Multiscale-Traffic-Control/SourceCodes/environment/network_model/single_intersection_pedestrian_X.net.xml"/>
        <route-files value="/Users/shakibanaderian/Desktop/Multimodal SVCC project/CET593/Multiscale-Traffic-Control/SourceCodes/environment/network_model/single_intersection.rou.xml"/>
        <additional-files value="/Users/shakibanaderian/Desktop/Multimodal SVCC project/CET593/Multiscale-Traffic-Control/SourceCodes/environment/network_model/single_intersection.add.xml"/>
    </input>

    <output>
        <queue-output value="/Users/shakibanaderian/Desktop/Multimodal SVCC project/CET593/Multiscale-Traffic-Control/SourceCodes/environment/simulation_data/single_intersection/queues_multi_scale_symmetric_pene_100.xml"/>
        <tripinfo-output value="/Users/shakibanaderian/Desktop/Multimodal SVCC project/CET593/Multiscale-Traffic-Control/SourceCodes/environment/simulation_data/single_intersection/tripinfo_multi_scale_symmetric_pene_100.xml"/>
    </output>

    <time>
        <begin value="0"/>
        <step-length value="0.5"/>
    </time>

    <processing>
        <waiting-time-memory value="1000"/>
    </processing>

    <report>
        <verbose value="true"/>
        <no-step-log value="true"/>
    </report>

    <traci_server>
        <remote-port value="61389"/>
    </traci_server>

    <gui_only>
        <start value="true"/>
    </gui_only>

</configuration>
